<?xml version="1.0" encoding="UTF-8"?>

<!-- generated on 2023-07-19 09:49:26 by Eclipse SUMO netedit Version 1.17.0
-->

<routes xmlns:xsi="http://www.w3.org/2001/XMLSchema-instance" xsi:noNamespaceSchemaLocation="http://sumo.dlr.de/xsd/routes_file.xsd">
    <!-- Vehicles, persons and containers (sorted by depart) -->
    <trip id="t_0" depart="0.00" from="E0" to="E1"/>
</routes>
